# Built with EasyBuild version 4.6.0-ra6dbb4b22832c431590f725219d89d82c9946dba on 2022-11-04_09-01-42
easyblock = "Tarball"

name = 'LS-PrePost'
version = '4.9.9'

homepage = 'http://lstc.com/products/ls-prepost'
description = """LS-PrePost is an advanced pre and post-processor that is delivered free with LS-DYNA."""

toolchain = SYSTEM

# Manual download to /cvmfs/restricted.computecanada.ca/easybuild/sources/l/LS-PrePost
# https://ftp.lstc.com/user/ls-prepost/4.9/linux64/lsprepost-4.9.9-common-14Oct2022.tgz
sources = ['lsprepost-%(version)s-common-14Oct2022.tgz']
checksums = ['226e145b5d19a38fabf37b3657f5500cce3935f08d762e984c645cd86fcd4ac3']

postinstallcmds = [
    # Avoid startup warning from lsprepost resulting from libtif.so.5 from gentoo being too new ie)
    # /cvmfs/soft.computecanada.ca/gentoo/2020/usr/lib64/libtiff.so.5: no version information available
    # by swapping in slightly older variant from Rocky Linux release 8.6 taken from under narval:/lib64
    'cp -a /cvmfs/restricted.computecanada.ca/easybuild/sources/l/LS-PrePost/contrib/4.9.9/lib* %(installdir)s/lib',
    'chmod -R go+rX %(installdir)s',
    # add_origin so libtiff.so.5 can find libjbig.so.2.1 when lsprepost is run directly (without lspp4X script)
    'setrpaths.sh --add_origin --path %(installdir)s',
    'for x in lsprepost lsrun msuite_ls_64 tetgen; do' +
    '  patchelf --set-rpath %(installdir)s/lib:%(installdir)s/lib_mesa %(installdir)s/$x;' +
    '  chmod 755 %(installdir)s/$x;' +
    'done',
    'sed -i \'s|\$HOME\/lsprepost4.9_common|%(installdir)s|g\' %(installdir)s/lspp49',
    'sed -i \'s|\$HOME\/lsprepost4.9_common|%(installdir)s|g\' %(installdir)s/lspp49_mesa'
]

modextrapaths = {'PATH': ['']}

sanity_check_paths = {
    'files': ['lsprepost'],
    'dirs': ['lib']
}

moduleclass = 'cae'

# Build statistics
buildstats = [{
    "build_time": 31.74,
    "command_line": ['--add-system-to-minimal-toolchains', "--allow-loaded-modules='gentoo'", "--buildpath='/tmp/ebuser/avx2'", "--configfiles='/cvmfs/soft.computecanada.ca/easybuild/config.cfg,/cvmfs/soft.computecanada.ca/easybuild/config-gentoo.cfg'", "--containerpath='/cvmfs/soft.computecanada.ca/easybuild/containers'", "--cuda-compute-capabilities='6.0,7.0,7.5,8.0'", '--enforce-checksums', "--env-for-shebang='/cvmfs/soft.computecanada.ca/gentoo/2020/usr/bin/env -S'", "--filter-deps='Bison,CMake=:3.16.5[,flex,ncurses,libreadline,gzip,bzip2,zlib,binutils,M4,Autoconf,Automake,libtool,Autotools,Szip,libxml2,SQLite=:3.36[,cURL,Doxygen,expat=:2.2.5[,Mesa,libGLU,SWIG=:3.0.12],PCRE,libjpeg-turbo,LibTIFF,libpng,XZ,gettext,X11,pkg-config,pkgconf,libdrm,gperf,FLTK,fontconfig,freetype,GMP,GL2PS,GraphicsMagick,MPFR,libmatheval,Tcl,Tk,libX11,libXft,libXpm,libXext,libXt,makedepend,cairo,libiconv,FFmpeg,GLib,FLANN,hwloc=:2.4.0[,numactl,DBus,texinfo,libsndfile,Pango,Lua,FreeImage,zstd,util-linux,file,GTK+,libunwind,LAME,NASM,x264,x265,FriBidi,ASSIMP,libarchive,ImageMagick,Ghostscript,Tkinter,libtirpc,Zip,SDL2,GST-plugins-base,libevent,tcsh,time,libedit,libpciaccess,UnZip,Check,OpenSSL,giflib,libwebp,git'", "--filter-env-vars='LD_LIBRARY_PATH,LD_PRELOAD'", '--disable-fixed-installdir-naming-scheme', '--force', "--hide-deps='icc,ifort,GCCcore'", "--hide-toolchains='GCCcore,iompi,iomkl,gompic'", "--hooks='/cvmfs/soft.computecanada.ca/easybuild/cc_hooks_gentoo.py'", '--ignore-osdeps', "--include-module-naming-schemes='/cvmfs/soft.computecanada.ca/easybuild/easybuild-computecanada-config/SoftCCHierarchicalMNS.py'", "--include-toolchains='/cvmfs/soft.computecanada.ca/easybuild/easybuild-computecanada-config/toolchains/*.py'", "--installpath='/cvmfs/soft.computecanada.ca/easybuild'", "--installpath-software='/cvmfs/restricted.computecanada.ca/easybuild/software/2020'", '--minimal-toolchains', '--module-depends-on', '--module-extensions', "--module-naming-scheme='SoftCCHierarchicalMNS'", "--optarch='{\\'NVHPC\\': \\'tp=haswell\\', \\'Intel\\': \\'march=core-avx2 -axCore-AVX512\\', \\'GCC\\': \\'march=core-avx2\\'}'", "--packagepath='/cvmfs/soft.computecanada.ca/easybuild/packages'", "--parallel='8'", "--prefix='/cvmfs/soft.computecanada.ca/easybuild'", '--recursive-module-unload', "--repository='GitRepository'", "--repositorypath='/cvmfs/soft.computecanada.ca/easybuild/ebfiles_repo.git,2020'", "--robot-paths='/cvmfs/soft.computecanada.ca/easybuild/ebfiles_repo/2020:/cvmfs/soft.computecanada.ca/easybuild/easyconfigs'", "--sourcepath='/cvmfs/restricted.computecanada.ca/easybuild/sources'", "--subdir-modules='modules/2020'", "--subdir-software='software/2020'", "--subdir-user-modules='.local/easybuild/modules/2020'", "--suffix-modules-path=''", "--sysroot='/cvmfs/soft.computecanada.ca/gentoo/2020'", "--use-ccache='/cvmfs/local/ccache'", '--use-existing-modules', '/cvmfs/soft.computecanada.ca/easybuild/easyconfigs/l/LS-PrePost/LS-PrePost-4.9.9.eb'],
    "core_count": 16,
    "cpu_arch": "x86_64",
    "cpu_arch_name": "UNKNOWN",
    "cpu_model": "Intel Xeon Processor (Skylake, IBRS)",
    "cpu_speed": 2494.14,
    "cpu_vendor": "Intel",
    "easybuild-easyblocks_version": "4.6.0-r9a09ad5a6c046bbc1a0092f75b2d57a02aeb770e",
    "easybuild-framework_version": "4.6.0-ra6dbb4b22832c431590f725219d89d82c9946dba",
    "gcc_version": "Using built-in specs.; COLLECT_GCC=/cvmfs/soft.computecanada.ca/gentoo/2020/usr/bin/gcc; COLLECT_LTO_WRAPPER=/cvmfs/soft.computecanada.ca/gentoo/2020/usr/libexec/gcc/x86_64-pc-linux-gnu/9.3.0/lto-wrapper; OFFLOAD_TARGET_NAMES=nvptx-none; Target: x86_64-pc-linux-gnu; Configured with: /var/tmp/portage/sys-devel/gcc-9.3.0/work/gcc-9.3.0/configure --host=x86_64-pc-linux-gnu --build=x86_64-pc-linux-gnu --prefix=/cvmfs/soft.computecanada.ca/gentoo/2020/usr --bindir=/cvmfs/soft.computecanada.ca/gentoo/2020/usr/x86_64-pc-linux-gnu/gcc-bin/9.3.0 --includedir=/cvmfs/soft.computecanada.ca/gentoo/2020/usr/lib/gcc/x86_64-pc-linux-gnu/9.3.0/include --datadir=/cvmfs/soft.computecanada.ca/gentoo/2020/usr/share/gcc-data/x86_64-pc-linux-gnu/9.3.0 --mandir=/cvmfs/soft.computecanada.ca/gentoo/2020/usr/share/gcc-data/x86_64-pc-linux-gnu/9.3.0/man --infodir=/cvmfs/soft.computecanada.ca/gentoo/2020/usr/share/gcc-data/x86_64-pc-linux-gnu/9.3.0/info --with-gxx-include-dir=/cvmfs/soft.computecanada.ca/gentoo/2020/usr/lib/gcc/x86_64-pc-linux-gnu/9.3.0/include/g++-v9 --with-python-dir=/share/gcc-data/x86_64-pc-linux-gnu/9.3.0/python --enable-languages=c,c++,fortran --enable-obsolete --enable-secureplt --disable-werror --with-system-zlib --enable-nls --without-included-gettext --enable-checking=release --with-bugurl=https://bugs.gentoo.org/ --with-pkgversion='Gentoo 9.3.0 p2' --disable-esp --enable-libstdcxx-time --with-build-config=bootstrap-lto --enable-shared --enable-threads=posix --enable-__cxa_atexit --enable-clocale=gnu --disable-multilib --with-multilib-list=m64 --disable-altivec --disable-fixed-point --enable-targets=all --enable-libgomp --disable-libmudflap --disable-libssp --disable-libada --disable-systemtap --enable-vtable-verify --enable-lto --without-isl --enable-default-pie --enable-default-ssp --without-cuda-driver --enable-offload-targets=nvptx-none --with-sysroot=/cvmfs/soft.computecanada.ca/gentoo/2020; Thread model: posix; gcc version 9.3.0 (Gentoo 9.3.0 p2) ; ",
    "glibc_version": "2.30",
    "hostname": "build-node.computecanada.ca",
    "install_size": 538120593,
    "modules_tool": ('Lmod', '/cvmfs/soft.computecanada.ca/custom/software/lmod/lmod/libexec/lmod', '8.7.4'),
    "os_name": "CentOS Linux",
    "os_type": "Linux",
    "os_version": "7.9.2009",
    "platform_name": "x86_64-unknown-linux",
    "python_version": "3.7.7 (default, May  5 2020, 15:36:34) ; [GCC 9.3.0]",
    "system_gcc_path": "/tmp/eb-_bsfe3k0/tmp1933nw8k/gcc",
    "system_python_path": "/cvmfs/soft.computecanada.ca/gentoo/2020/usr/bin/python",
    "timestamp": 1667552460,
    "total_memory": 60232,
}]
