# Built with EasyBuild version 4.6.0-ra6dbb4b22832c431590f725219d89d82c9946dba on 2022-11-03_05-35-20
name = 'LS-DYNA'
version = '13.1.1'
easyblock = "Tarball"

homepage = 'http://www.lstc.com/products/ls-dyna'
description = """LS-DYNA is a general-purpose finite element program capable of simulating complex real world problems. 
It is used by the automobile, aerospace, construction, military, manufacturing, and bioengineering industries. 
LS-DYNA is optimized for shared and distributed memory Unix, Linux, and Windows based, platforms, and it is fully 
QA'd by LSTC. The code's origins lie in highly nonlinear, transient dynamic finite element analysis using explicit 
time integration.
"""

# module load StdEnv/2020
toolchain = {'name': 'iccifort', 'version': '2020.1.217'}

# download sources from ftp.lstc.com
sources = [
'ls-dyna_smp_s_R13_1_1_centos79_intel190.gz',
'ls-dyna_smp_d_R13_1_1_centos79_intel190.gz',
'ansyscl-R13_1_1-smp.gz'
]

# sha256sum
checksums = [
'2ff6923fa5307f6c06c1da652250bcd24df9a0e8e3db94bed69655739460cc41',
'0f827e3f79df7aac888565a540dda47b10e9eba48c47b12e9246d7ab21c51945',
'9ed4e9c3296dfe2e255c86a2a0fe727802583d76990525a2572bc48d96aedb97'
]

postinstallcmds = [
        'mv %(installdir)s/ansyscl-R13_1_1-smp %(installdir)s/ansyscl',
	'ln -s ls-dyna_smp_s_R13_1_1_centos79_intel190 %(installdir)s/ls-dyna_s',
	'ln -s ls-dyna_smp_d_R13_1_1_centos79_intel190 %(installdir)s/ls-dyna_d',
	'chmod +x %(installdir)s/{ls-dyna_smp_s_R13_1_1_centos79_intel190,ls-dyna_smp_d_R13_1_1_centos79_intel190,ansyscl}',
	'/cvmfs/soft.computecanada.ca/easybuild/bin/setrpaths.sh --path %(installdir)s'
]
modextrapaths = {'PATH': ''}

sanity_check_paths = {
    'files': ["ls-dyna_s", "ls-dyna_d", "ls-dyna_smp_s_R13_1_1_centos79_intel190", "ls-dyna_smp_d_R13_1_1_centos79_intel190", "ansyscl" ],
    'dirs': []
}

modluafooter = """
require("SitePackage")
local found = find_and_define_license_file("LSTC_FILE","ls-dyna")
if (not found) then
        local error_message = [[
	We did not find a suitable license for LS-DYNA. If you have access to one, you can create the file $HOME/.licenses/ls-dyna.lic with the license information. If you think you should have access to one as    part of your institution, please write to support@computecanada.ca so that we can configure it.

	Nous n'avons pas trouve de licence utilisable pour LS-DYNA. Si vous avez acces a une licence de LS-DYNA, vous pouvez creer le fichier $HOME/.licenses/ls-dyna.lic avec l'information de la licence. Si vous    pensez que vous devriez automatiquement avoir acces a une licence via votre institution, veuillez ecrire a support@calculcanada.ca pour que nous puissions la configurer.
	]]
	LmodError(error_message)
end
"""

# Build statistics
buildstats = [{
    "build_time": 46.63,
    "command_line": ['--add-system-to-minimal-toolchains', "--allow-loaded-modules='gentoo'", "--buildpath='/tmp/ebuser/avx2'", "--configfiles='/cvmfs/soft.computecanada.ca/easybuild/config.cfg,/cvmfs/soft.computecanada.ca/easybuild/config-gentoo.cfg'", "--containerpath='/cvmfs/soft.computecanada.ca/easybuild/containers'", "--cuda-compute-capabilities='6.0,7.0,7.5,8.0'", '--enforce-checksums', "--env-for-shebang='/cvmfs/soft.computecanada.ca/gentoo/2020/usr/bin/env -S'", "--filter-deps='Bison,CMake=:3.16.5[,flex,ncurses,libreadline,gzip,bzip2,zlib,binutils,M4,Autoconf,Automake,libtool,Autotools,Szip,libxml2,SQLite=:3.36[,cURL,Doxygen,expat=:2.2.5[,Mesa,libGLU,SWIG=:3.0.12],PCRE,libjpeg-turbo,LibTIFF,libpng,XZ,gettext,X11,pkg-config,pkgconf,libdrm,gperf,FLTK,fontconfig,freetype,GMP,GL2PS,GraphicsMagick,MPFR,libmatheval,Tcl,Tk,libX11,libXft,libXpm,libXext,libXt,makedepend,cairo,libiconv,FFmpeg,GLib,FLANN,hwloc=:2.4.0[,numactl,DBus,texinfo,libsndfile,Pango,Lua,FreeImage,zstd,util-linux,file,GTK+,libunwind,LAME,NASM,x264,x265,FriBidi,ASSIMP,libarchive,ImageMagick,Ghostscript,Tkinter,libtirpc,Zip,SDL2,GST-plugins-base,libevent,tcsh,time,libedit,libpciaccess,UnZip,Check,OpenSSL,giflib,libwebp,git'", "--filter-env-vars='LD_LIBRARY_PATH,LD_PRELOAD'", '--disable-fixed-installdir-naming-scheme', "--hide-deps='icc,ifort,GCCcore'", "--hide-toolchains='GCCcore,iompi,iomkl,gompic'", "--hooks='/cvmfs/soft.computecanada.ca/easybuild/cc_hooks_gentoo.py'", '--ignore-osdeps', "--include-module-naming-schemes='/cvmfs/soft.computecanada.ca/easybuild/easybuild-computecanada-config/SoftCCHierarchicalMNS.py'", "--include-toolchains='/cvmfs/soft.computecanada.ca/easybuild/easybuild-computecanada-config/toolchains/*.py'", "--installpath='/cvmfs/soft.computecanada.ca/easybuild'", "--installpath-software='/cvmfs/restricted.computecanada.ca/easybuild/software/2020'", '--minimal-toolchains', '--module-depends-on', '--module-extensions', "--module-naming-scheme='SoftCCHierarchicalMNS'", "--optarch='{\\'NVHPC\\': \\'tp=haswell\\', \\'Intel\\': \\'march=core-avx2 -axCore-AVX512\\', \\'GCC\\': \\'march=core-avx2\\'}'", "--packagepath='/cvmfs/soft.computecanada.ca/easybuild/packages'", "--parallel='8'", "--prefix='/cvmfs/soft.computecanada.ca/easybuild'", '--recursive-module-unload', "--repository='GitRepository'", "--repositorypath='/cvmfs/soft.computecanada.ca/easybuild/ebfiles_repo.git,2020'", "--robot-paths='/cvmfs/soft.computecanada.ca/easybuild/ebfiles_repo/2020:/cvmfs/soft.computecanada.ca/easybuild/easyconfigs'", "--sourcepath='/cvmfs/restricted.computecanada.ca/easybuild/sources'", "--subdir-modules='modules/2020'", "--subdir-software='software/2020'", "--subdir-user-modules='.local/easybuild/modules/2020'", "--suffix-modules-path=''", "--sysroot='/cvmfs/soft.computecanada.ca/gentoo/2020'", "--use-ccache='/cvmfs/local/ccache'", '--use-existing-modules', '/cvmfs/soft.computecanada.ca/easybuild/easyconfigs/l/LS-DYNA/LS-DYNA-13.1.1-iccifort-2020.1.217.eb'],
    "core_count": 16,
    "cpu_arch": "x86_64",
    "cpu_arch_name": "UNKNOWN",
    "cpu_model": "Intel Xeon Processor (Skylake, IBRS)",
    "cpu_speed": 2494.14,
    "cpu_vendor": "Intel",
    "easybuild-easyblocks_version": "4.6.0-r9a09ad5a6c046bbc1a0092f75b2d57a02aeb770e",
    "easybuild-framework_version": "4.6.0-ra6dbb4b22832c431590f725219d89d82c9946dba",
    "gcc_version": "Using built-in specs.; COLLECT_GCC=gcc; COLLECT_LTO_WRAPPER=/cvmfs/soft.computecanada.ca/easybuild/software/2020/Core/gcccore/9.3.0/libexec/gcc/x86_64-pc-linux-gnu/9.3.0/lto-wrapper; OFFLOAD_TARGET_NAMES=nvptx-none; Target: x86_64-pc-linux-gnu; Configured with: ../configure --with-sysroot=/cvmfs/soft.computecanada.ca/gentoo/2020 --enable-languages=c,c++,fortran --without-cuda-driver --enable-offload-targets=nvptx-none --enable-lto --enable-checking=release --disable-multilib --enable-shared=yes --enable-static=yes --enable-threads=posix --enable-plugins --enable-gold=default --enable-ld --with-plugin-ld=ld.gold --prefix=/cvmfs/soft.computecanada.ca/easybuild/software/2020/Core/gcccore/9.3.0 --with-local-prefix=/cvmfs/soft.computecanada.ca/easybuild/software/2020/Core/gcccore/9.3.0 --enable-bootstrap --with-isl=/tmp/ebuser/avx2/GCCcore/9.3.0/system-system/gcc-9.3.0/stage2_stuff --build=x86_64-pc-linux-gnu --host=x86_64-pc-linux-gnu; Thread model: posix; gcc version 9.3.0 (GCC) ; ",
    "glibc_version": "2.30",
    "hostname": "build-node.computecanada.ca",
    "install_size": 1136692710,
    "modules_tool": ('Lmod', '/cvmfs/soft.computecanada.ca/custom/software/lmod/lmod/libexec/lmod', '8.7.4'),
    "os_name": "CentOS Linux",
    "os_type": "Linux",
    "os_version": "7.9.2009",
    "platform_name": "x86_64-unknown-linux",
    "python_version": "3.7.7 (default, May  5 2020, 15:36:34) ; [GCC 9.3.0]",
    "system_gcc_path": "/cvmfs/soft.computecanada.ca/easybuild/software/2020/Core/gcccore/9.3.0/bin/gcc",
    "system_python_path": "/cvmfs/soft.computecanada.ca/gentoo/2020/usr/bin/python",
    "timestamp": 1667453719,
    "total_memory": 60232,
}]
