# Built with EasyBuild version 4.3.3-r3ff498d1f735c51b313c04c5e4abeeaecc23589b on 2021-03-09_15-04-37
# This file is an EasyBuild reciPY as per https://github.com/hpcugent/easybuild
# Author: Maxime Boissonneault
# Email: maxime.boissonneault@calculquebec.calculquebec

easyblock = "Tarball"

name = 'LS-OPT'
version = "7.0.0"

homepage = 'http://www.lstc.com/products/ls-opt'
description = """LS-OPT is a standalone Design Optimization and Probabilistic Analysis package with an interface to LS-DYNA."""

toolchain = SYSTEM

# You need to get the software manually from ftp.lstc.com:

sources = [
    'lsopt_7_0_0_x64_rhel7.tar.gz',
]
checksums = ['ffe85d91a749ccaeecfba7784cee2ad2312c161920e2d0346fee99993f254541']

postinstallcmds = [
    '/cvmfs/soft.computecanada.ca/easybuild/bin/setrpaths.sh --path %(installdir)s '
]

modextrapaths = {'PATH': ''}

sanity_check_paths = {
    'files': ["lsopt"],
    'dirs': []
}

moduleclass = 'phys'

# Build statistics
buildstats = [{
    "build_time": 21.44,
    "command_line": ['--add-system-to-minimal-toolchains', "--allow-loaded-modules='nixpkgs'", "--buildpath='/tmp/ebuser/avx2'", "--configfiles='/cvmfs/soft.computecanada.ca/easybuild/config.cfg,/cvmfs/soft.computecanada.ca/easybuild/config-nix.cfg'", "--containerpath='/cvmfs/soft.computecanada.ca/easybuild/containers'", '--enforce-checksums', "--filter-deps='Bison,CMake=:3.12.3[,flex,ncurses,libreadline,bzip2,zlib,binutils,M4,Autoconf,Automake,libtool,Autotools,Szip,libxml2,sparsehash=:2.0.3[,SQLite,cURL,Doxygen,expat=:2.2.5[,Mesa,libGLU,SWIG=:3.0.12[,PCRE,libjpeg-turbo,LibTIFF,libpng,XZ,ant,gettext,X11,pkg-config,LLVM=:6.0.1[,libdrm,gperf,FLTK,fontconfig,freetype,GMP,GL2PS,gnuplot,GraphicsMagick,MPFR,libmatheval,Tcl,Tk,CFITSIO,libX11,libXft,libXpm,libXext,makedepend,cairo,libiconv,FFmpeg,GLib,FLANN,hwloc,numactl,DBus,texinfo,libsndfile,Pango,Lua,FreeImage,libevent=:2.1.11['", "--filter-env-vars='LD_LIBRARY_PATH,LD_PRELOAD'", '--disable-fixed-installdir-naming-scheme', "--hide-deps='icc,ifort,GCCcore'", "--hide-toolchains='GCCcore,iompi,iomkl'", "--hooks='/cvmfs/soft.computecanada.ca/easybuild/cc_hooks_nix.py'", '--ignore-osdeps', "--include-module-naming-schemes='/cvmfs/soft.computecanada.ca/easybuild/easybuild-computecanada-config/SoftCCHierarchicalMNS.py'", "--include-toolchains='/cvmfs/soft.computecanada.ca/easybuild/easybuild-computecanada-config/toolchains/*.py'", "--installpath='/cvmfs/soft.computecanada.ca/easybuild'", "--installpath-software='/cvmfs/restricted.computecanada.ca/easybuild/software/2017'", '--minimal-toolchains', '--module-depends-on', '--module-extensions', "--module-naming-scheme='SoftCCHierarchicalMNS'", "--optarch='{\\'PGI\\': \\'tp=haswell\\', \\'Intel\\': \\'xCore-AVX2\\', \\'GCC\\': \\'march=core-avx2\\', \\'GCCcore\\': \\'GENERIC\\'}'", "--packagepath='/cvmfs/soft.computecanada.ca/easybuild/packages'", "--parallel='8'", "--prefix='/cvmfs/soft.computecanada.ca/easybuild'", '--recursive-module-unload', "--repository='GitRepository'", "--repositorypath='/cvmfs/soft.computecanada.ca/easybuild/ebfiles_repo.git,2017'", "--robot-paths='/cvmfs/soft.computecanada.ca/easybuild/easyconfigs:/cvmfs/soft.computecanada.ca/easybuild/ebfiles_repo/2017'", "--sourcepath='/cvmfs/restricted.computecanada.ca/easybuild/sources'", "--subdir-modules='modules/2017'", "--subdir-software='software/2017'", "--subdir-user-modules='.local/easybuild/modules/2017'", "--suffix-modules-path=''", "--use-ccache='/cvmfs/local/ccache'", '--use-existing-modules', 'LS-OPT-7.0.0.eb'],
    "core_count": 16,
    "cpu_arch": "x86_64",
    "cpu_arch_name": "UNKNOWN",
    "cpu_model": "Intel Xeon Processor (Skylake, IBRS)",
    "cpu_speed": 2494.14,
    "cpu_vendor": "Intel",
    "easybuild-easyblocks_version": "4.3.3-r46e9472c07e7013aac12dc8d608b2b8a9ef71fa4",
    "easybuild-framework_version": "4.3.3-r3ff498d1f735c51b313c04c5e4abeeaecc23589b",
    "gcc_version": "Using built-in specs.; COLLECT_GCC=/cvmfs/soft.computecanada.ca/nix/var/nix/profiles/16.09/bin/gcc; COLLECT_LTO_WRAPPER=/cvmfs/soft.computecanada.ca/nix/store/mn7c98fdilbmsqc3h77y32qy0hqz2ckz-gfortran-5.4.0/libexec/gcc/x86_64-unknown-linux-gnu/5.4.0/lto-wrapper; Target: x86_64-unknown-linux-gnu; Configured with: ; Thread model: posix; gcc version 5.4.0 (GCC) ; ",
    "glibc_version": "2.24",
    "hostname": "build-node.computecanada.ca",
    "install_size": 162308562,
    "modules_tool": ('Lmod', '/cvmfs/soft.computecanada.ca/custom/software/lmod/lmod/libexec/lmod', '8.4.20'),
    "os_name": "centos linux",
    "os_type": "Linux",
    "os_version": "7.9.2009",
    "platform_name": "x86_64-unknown-linux",
    "python_version": "3.7.7 (default, May  5 2020, 15:36:34) ; [GCC 9.3.0]",
    "system_gcc_path": "/tmp/eb-nmvpy_cn/tmpu8mje_al/gcc",
    "system_python_path": "/cvmfs/soft.computecanada.ca/nix/var/nix/profiles/16.09/bin/python",
    "timestamp": 1615302276,
    "total_memory": 60232,
}]
